Version 4
SHEET 1 2328 740
WIRE 960 -112 944 -112
WIRE 976 -112 960 -112
WIRE 944 -64 944 -112
WIRE 96 64 48 64
WIRE 224 64 176 64
WIRE 336 64 336 -32
WIRE 336 64 224 64
WIRE 384 64 336 64
WIRE 432 64 384 64
WIRE 464 64 432 64
WIRE 576 64 544 64
WIRE 752 64 576 64
WIRE 880 64 752 64
WIRE 944 64 944 0
WIRE 944 64 880 64
WIRE 976 64 944 64
WIRE 1040 64 976 64
WIRE 1152 64 1120 64
WIRE 1248 64 1232 64
WIRE 1360 64 1328 64
WIRE 1392 64 1360 64
WIRE 1488 64 1472 64
WIRE 1600 64 1568 64
WIRE 1632 64 1600 64
WIRE 1728 64 1712 64
WIRE 1840 64 1808 64
WIRE 1920 64 1840 64
WIRE 1968 64 1920 64
WIRE 2064 64 1968 64
WIRE 2176 64 2144 64
WIRE 2208 64 2176 64
WIRE -144 96 -256 96
WIRE -128 96 -144 96
WIRE -96 96 -128 96
WIRE -256 128 -256 96
WIRE -144 128 -144 96
WIRE 48 128 48 64
WIRE 224 128 224 64
WIRE 432 128 432 64
WIRE 576 128 576 64
WIRE 752 128 752 64
WIRE 880 128 880 64
WIRE 976 128 976 64
WIRE 1360 128 1360 64
WIRE 1600 128 1600 64
WIRE 1840 128 1840 64
WIRE 1968 128 1968 64
WIRE 2208 128 2208 64
WIRE -256 208 -256 192
WIRE 48 224 48 192
WIRE 224 224 224 192
WIRE 432 224 432 192
WIRE 576 224 576 192
WIRE 752 224 752 192
WIRE 880 224 880 192
WIRE 976 224 976 192
WIRE 1360 224 1360 192
WIRE 1600 224 1600 192
WIRE 1840 224 1840 192
WIRE 1968 224 1968 192
WIRE 2208 224 2208 192
WIRE 928 336 912 336
WIRE 944 336 928 336
WIRE 912 384 912 336
WIRE 96 512 48 512
WIRE 224 512 176 512
WIRE 336 512 336 416
WIRE 336 512 224 512
WIRE 384 512 336 512
WIRE 448 512 384 512
WIRE 864 512 448 512
WIRE 912 512 912 448
WIRE 912 512 864 512
WIRE 976 512 912 512
WIRE 1040 512 976 512
WIRE 1152 512 1120 512
WIRE 1248 512 1232 512
WIRE 1360 512 1328 512
WIRE 1392 512 1360 512
WIRE 1488 512 1472 512
WIRE 1600 512 1568 512
WIRE 1632 512 1600 512
WIRE 1728 512 1712 512
WIRE 1840 512 1808 512
WIRE 1920 512 1840 512
WIRE 1968 512 1920 512
WIRE 2064 512 1968 512
WIRE 2192 512 2144 512
WIRE 2208 512 2192 512
WIRE 48 576 48 512
WIRE 224 576 224 512
WIRE 448 576 448 512
WIRE 864 576 864 512
WIRE 976 576 976 512
WIRE 1360 576 1360 512
WIRE 1600 576 1600 512
WIRE 1840 576 1840 512
WIRE 1968 576 1968 512
WIRE 2208 576 2208 512
WIRE 48 672 48 640
WIRE 224 672 224 640
WIRE 448 672 448 640
WIRE 864 672 864 640
WIRE 976 672 976 640
WIRE 1360 672 1360 640
WIRE 1600 672 1600 640
WIRE 1840 672 1840 640
WIRE 1968 672 1968 640
WIRE 2208 672 2208 640
FLAG 48 224 0
FLAG 224 224 0
FLAG 432 224 0
FLAG 576 224 0
FLAG 976 224 0
FLAG 1360 224 0
FLAG 1600 224 0
FLAG 1840 224 0
FLAG 1968 224 0
FLAG 2208 224 0
FLAG 336 -112 0
FLAG 384 64 Vpin
FLAG 1920 64 Vpad
FLAG 48 672 0
FLAG 224 672 0
FLAG 976 672 0
FLAG 1360 672 0
FLAG 1600 672 0
FLAG 1840 672 0
FLAG 1968 672 0
FLAG 2208 672 0
FLAG 336 336 0
FLAG 384 512 Vpin2
FLAG 1920 512 Vpad2
FLAG 880 224 0
FLAG 448 672 0
FLAG 48 64 Vsamp
FLAG 48 512 Vsamp2
FLAG 752 224 0
FLAG -144 208 0
FLAG -128 96 3v3
FLAG 960 -112 3v3
FLAG 864 672 0
FLAG 928 336 3v3
FLAG 2176 64 Vfin
FLAG 2192 512 Vfin2
FLAG 1600 64 Vtline
FLAG 1600 512 Vtline2
FLAG -256 208 0
SYMBOL cap 32 128 R0
SYMATTR InstName Chold
SYMATTR Value 4.4e-12
SYMBOL cap 208 128 R0
SYMATTR InstName Cpin
SYMATTR Value 11e-12
SYMBOL res 192 48 R90
WINDOW 0 0 56 VBottom 2
WINDOW 3 32 56 VTop 2
SYMATTR InstName Rsample
SYMATTR Value 5e3
SYMBOL cap 416 128 R0
SYMATTR InstName Cmux1
SYMATTR Value 13.1e-12
SYMBOL cap 560 128 R0
SYMATTR InstName Cmux2
SYMATTR Value 5.6e-12
SYMBOL res 560 48 R90
WINDOW 0 0 56 VBottom 2
WINDOW 3 32 56 VTop 2
SYMATTR InstName Rmux
SYMATTR Value 200
SYMBOL ind 1136 80 R270
WINDOW 0 32 56 VTop 2
WINDOW 3 5 56 VBottom 2
SYMATTR InstName Lwire
SYMATTR Value 1.126e-6
SYMBOL res 1344 48 R90
WINDOW 0 0 56 VBottom 2
WINDOW 3 32 56 VTop 2
SYMATTR InstName Rwire
SYMATTR Value 0.022
SYMBOL cap 960 128 R0
SYMATTR InstName Cwire
SYMATTR Value 5e-12
SYMBOL ind 1376 80 R270
WINDOW 0 32 56 VTop 2
WINDOW 3 5 56 VBottom 2
SYMATTR InstName Lwire1
SYMATTR Value 1.126e-6
SYMBOL res 1584 48 R90
WINDOW 0 0 56 VBottom 2
WINDOW 3 32 56 VTop 2
SYMATTR InstName Rwire1
SYMATTR Value 0.022
SYMBOL cap 1344 128 R0
SYMATTR InstName Cwire1
SYMATTR Value 5e-12
SYMBOL ind 1616 80 R270
WINDOW 0 32 56 VTop 2
WINDOW 3 5 56 VBottom 2
SYMATTR InstName Lwire2
SYMATTR Value 1.126e-6
SYMBOL res 1824 48 R90
WINDOW 0 0 56 VBottom 2
WINDOW 3 32 56 VTop 2
SYMATTR InstName Rwire2
SYMATTR Value 0.022
SYMBOL cap 1584 128 R0
SYMATTR InstName Cwire2
SYMATTR Value 5e-12
SYMBOL cap 1824 128 R0
SYMATTR InstName Cwire3
SYMATTR Value 5e-12
SYMBOL cap 1952 128 R0
SYMATTR InstName Cpads
SYMATTR Value 36e-12
SYMBOL res 2160 48 R90
WINDOW 0 0 56 VBottom 2
WINDOW 3 32 56 VTop 2
SYMATTR InstName Rfinger
SYMATTR Value 1.5e3
SYMBOL cap 2192 128 R0
SYMATTR InstName Cfinger
SYMATTR Value 30e-12
SYMBOL current 336 -112 R0
WINDOW 3 24 28 Left 2
WINDOW 123 0 0 Left 2
WINDOW 39 0 0 Left 2
SYMATTR Value PWL(0 0)
SYMATTR InstName I1
SYMBOL cap 32 576 R0
SYMATTR InstName Chold1
SYMATTR Value 4.4e-12
SYMBOL cap 208 576 R0
SYMATTR InstName Cpin1
SYMATTR Value 11e-12
SYMBOL res 192 496 R90
WINDOW 0 0 56 VBottom 2
WINDOW 3 32 56 VTop 2
SYMATTR InstName Rsample1
SYMATTR Value 5e3
SYMBOL ind 1136 528 R270
WINDOW 0 32 56 VTop 2
WINDOW 3 5 56 VBottom 2
SYMATTR InstName Lwire3
SYMATTR Value 1.126e-6
SYMBOL res 1344 496 R90
WINDOW 0 0 56 VBottom 2
WINDOW 3 32 56 VTop 2
SYMATTR InstName Rwire3
SYMATTR Value 0.022
SYMBOL cap 960 576 R0
SYMATTR InstName Cwire4
SYMATTR Value 5e-12
SYMBOL ind 1376 528 R270
WINDOW 0 32 56 VTop 2
WINDOW 3 5 56 VBottom 2
SYMATTR InstName Lwire4
SYMATTR Value 1.126e-6
SYMBOL res 1584 496 R90
WINDOW 0 0 56 VBottom 2
WINDOW 3 32 56 VTop 2
SYMATTR InstName Rwire4
SYMATTR Value 0.022
SYMBOL cap 1344 576 R0
SYMATTR InstName Cwire5
SYMATTR Value 5e-12
SYMBOL ind 1616 528 R270
WINDOW 0 32 56 VTop 2
WINDOW 3 5 56 VBottom 2
SYMATTR InstName Lwire5
SYMATTR Value 1.126e-6
SYMBOL res 1824 496 R90
WINDOW 0 0 56 VBottom 2
WINDOW 3 32 56 VTop 2
SYMATTR InstName Rwire5
SYMATTR Value 0.022
SYMBOL cap 1584 576 R0
SYMATTR InstName Cwire6
SYMATTR Value 5e-12
SYMBOL cap 1824 576 R0
SYMATTR InstName Cwire7
SYMATTR Value 5e-12
SYMBOL cap 1952 576 R0
SYMATTR InstName Cpads1
SYMATTR Value 36e-12
SYMBOL res 2160 496 R90
WINDOW 0 0 56 VBottom 2
WINDOW 3 32 56 VTop 2
SYMATTR InstName Rfinger1
SYMATTR Value 1.5e3
SYMBOL cap 2192 576 R0
SYMATTR InstName Cfinger1
SYMATTR Value 30e-12
SYMBOL current 336 336 R0
WINDOW 3 24 28 Left 2
WINDOW 123 0 0 Left 2
WINDOW 39 0 0 Left 2
SYMATTR Value PWL(0 0)
SYMATTR InstName I2
SYMBOL cap 864 128 R0
SYMATTR InstName Cstray
SYMATTR Value 5e-12
SYMBOL cap 432 576 R0
SYMATTR InstName Cstray1
SYMATTR Value 5e-12
SYMBOL diode 768 192 R180
WINDOW 0 24 64 Left 2
WINDOW 3 24 0 Left 2
SYMATTR InstName Desd
SYMATTR Value 1N914
SYMBOL diode 960 0 R180
WINDOW 0 24 64 Left 2
WINDOW 3 24 0 Left 2
SYMATTR InstName Desd1
SYMATTR Value 1N914
SYMBOL voltage -144 112 R0
WINDOW 123 0 0 Left 2
WINDOW 39 24 124 Left 2
SYMATTR SpiceLine Rser=2
SYMATTR InstName V1
SYMATTR Value 3.3
SYMBOL diode 880 640 R180
WINDOW 0 24 64 Left 2
WINDOW 3 24 0 Left 2
SYMATTR InstName Desd2
SYMATTR Value 1N914
SYMBOL diode 928 448 R180
WINDOW 0 24 64 Left 2
WINDOW 3 24 0 Left 2
SYMATTR InstName Desd3
SYMATTR Value 1N914
SYMBOL res 1136 48 R90
WINDOW 0 0 56 VBottom 2
WINDOW 3 32 56 VTop 2
SYMATTR InstName Rdamp
SYMATTR Value 400
SYMBOL res 1136 496 R90
WINDOW 0 0 56 VBottom 2
WINDOW 3 32 56 VTop 2
SYMATTR InstName Rdamp2
SYMATTR Value 400
SYMBOL cap -272 128 R0
SYMATTR InstName Cpsdecoup
SYMATTR Value 1e-6
TEXT 88 -136 Left 2 !.tran 3u
TEXT 72 -32 Left 2 !.ic v(Vpad) = 0
TEXT 72 416 Left 2 !.ic v(Vpin2) = 0
TEXT 72 -8 Left 2 !.ic v(Vpin) = 0
TEXT 72 -56 Left 2 !.ic v(Vfin) = -2000
TEXT 72 392 Left 2 !.ic v(Vpad2) = 0
TEXT 72 368 Left 2 !.ic v(Vfin2) = -2000
